capacitor_cl
V1 NP 0 AC 1
C2 NP N001 100p
L3 N001 0 2.74n
.ac lin 501 50k 500Meg
.SAVE V(NP) I(C2)
.backanno
.end
