capacitor_c
V1 NP 0 AC 1
C2 NP 0 100p
.ac lin 501 50k 500Meg
.SAVE V(NP) I(C2)
.backanno
.end
