inductor_c
V1 NP 0 AC 1
L1 NP 0 680n
.ac lin 501 50k 500Meg
.SAVE V(NP) I(L1)
.backanno
.end
