inductor_lc
V1 NP 0 AC 1
L1 NP 0 680n
C1 NP 0 1.2p
.ac lin 501 50k 500Meg
.SAVE V(NP) I(V1)
.backanno
.end
